egret/models/tests/pglib_opf_case3_lmbd_acopf_0900.json
{"elements": {"bus": {"1": {"matpower_bustype": "ref", "area": 1.0, "vm": 1.0420979943509134, "va": 0.0, "base_kv": 240.0, "zone": 1.0, "v_min": 0.9, "v_max": 1.1, "lmp": 31.94732113028657, "qlmp": 3.855892581638176e-11, "pl": 99.00000000000001, "ql": 36.0}, "2": {"matpower_bustype": "PV", "area": 1.0, "vm": 0.9261705378198352, "va": 0.17113382348525313, "base_kv": 240.0, "zone": 1.0, "v_min": 0.9, "v_max": 1.1, "lmp": 28.955210626928505, "qlmp": -5.189634629639965e-12, "pl": 99.00000000000001, "ql": 36.0}, "3": {"matpower_bustype": "PV", "area": 1.0, "vm": 0.9, "va": -0.25692435779530826, "base_kv": 240.0, "zone": 1.0, "v_min": 0.9, "v_max": 1.1, "lmp": 35.63095670513128, "qlmp": -4.175352816003397e-12, "pl": 85.5, "ql": 45.0}}, "load": {"load_1": {"in_service": true, "p_load": 99.00000000000001, "q_load": 36.0, "bus": "1"}, "load_2": {"in_service": true, "p_load": 99.00000000000001, "q_load": 36.0, "bus": "2"}, "load_3": {"in_service": true, "p_load": 85.5, "q_load": 45.0, "bus": "3"}}, "generator": {"1": {"bus": "1", "pg": 122.48782333913594, "qg": 35.63311725521133, "vg": 1.0, "mbase": 100.0, "in_service": true, "p_min": 0.0, "p_max": 2000.0, "q_min": -1000.0, "q_max": 1000.0, "generator_type": "thermal", "p_cost": {"data_type": "cost_curve", "cost_curve_type": "polynomial", "values": {"0": 0.0, "1": 5.0, "2": 0.11}}, "startup_cost": 0.0, "shutdown_cost": 0.0}, "2": {"bus": "2", "pg": 163.2659448827313, "qg": -6.372051267855743, "vg": 1.0, "mbase": 100.0, "in_service": true, "p_min": 0.0, "p_max": 2000.0, "q_min": -1000.0, "q_max": 1000.0, "generator_type": "thermal", "p_cost": {"data_type": "cost_curve", "cost_curve_type": "polynomial", "values": {"0": 0.0, "1": 1.2, "2": 0.08500000000000002}}, "startup_cost": 0.0, "shutdown_cost": 0.0}, "3": {"bus": "3", "pg": 0.0, "qg": -4.664562151988195, "vg": 1.0, "mbase": 100.0, "in_service": true, "p_min": 0.0, "p_max": 0.0, "q_min": -1000.0, "q_max": 1000.0, "generator_type": "thermal", "p_cost": {"data_type": "cost_curve", "cost_curve_type": "polynomial", "values": {"0": 0.0, "1": 0.0, "2": 0.0}}, "startup_cost": 0.0, "shutdown_cost": 0.0}}, "branch": {"1": {"from_bus": "1", "to_bus": "3", "resistance": 0.065, "reactance": 0.62, "charging_susceptance": 0.45, "branch_type": "line", "rating_long_term": 9000.0, "rating_short_term": 9000.0, "rating_emergency": 9000.0, "in_service": true, "angle_diff_min": -30.0, "angle_diff_max": 30.0, "pf": 41.013092434284395, "qf": 0.11517991268776763, "pt": -39.64556855081355, "qt": -29.730390925895822, "pfl": 1.3675238834708447, "qfl": -29.615211013208054, "pf_dual": 3194.732113028766, "qf_dual": 3.854634430025131e-09}, "2": {"from_bus": "3", "to_bus": "2", "resistance": 0.025, "reactance": 0.75, "charging_susceptance": 0.7, "branch_type": "line", "rating_long_term": 50.0, "rating_short_term": 50.0, "rating_emergency": 50.0, "in_service": true, "angle_diff_min": -30.0, "angle_diff_max": 30.0, "pf": -45.85443144918646, "qf": -19.934171226092374, "pt": 46.525250916416326, "qt": -18.31395974283936, "pfl": 0.6708194672298717, "qfl": -38.24813096893173, "pf_dual": 3331.7628165753395, "qf_dual": -100.56669178697292}, "3": {"from_bus": "1", "to_bus": "2", "resistance": 0.042, "reactance": 0.9, "charging_susceptance": 0.3, "branch_type": "line", "rating_long_term": 9000.0, "rating_short_term": 9000.0, "rating_emergency": 9000.0, "in_service": true, "angle_diff_min": -30.0, "angle_diff_max": 30.0, "pf": -17.525269095148445, "qf": -0.4820626574764365, "pt": 17.74069396631498, "qt": -24.05809152501638, "pfl": 0.21542487116653353, "qfl": -24.540154182492817, "pf_dual": 3194.7321130286095, "qf_dual": 3.852218924459346e-09}}}, "system": {"model_name": "pglib_opf_case3_lmbd", "mpc_version": "'2'", "baseMVA": 100.0, "reference_bus": "1", "reference_bus_angle": 0.0, "total_cost": 4724.457950322829, "ploss": 2.25376822186725, "qloss": -92.4034961646326, "mult": 0.9}, "results": {"time": 0.01640486717224121, "#_cons": 36, "#_vars": 23, "termination": "optimal"}}